
     RDKit          3D

 70 72  0  0  0  0  0  0  0  0999 V2000
    8.3458    0.1103   -0.8615 O   0  0  0  0  0  0  0  0  0  0  0  0
    7.5709   -0.3556    0.1278 C   0  0  0  0  0  0  0  0  0  0  0  0
    7.9821   -1.0360    1.0443 O   0  0  0  0  0  0  0  0  0  0  0  0
    6.1933    0.1277   -0.0347 C   0  0  0  0  0  0  0  0  0  0  0  0
    5.6099    0.8881    0.9895 C   0  0  0  0  0  0  0  0  0  0  0  0
    6.4053    1.2208    2.1782 C   0  0  0  0  0  0  0  0  0  0  0  0
    7.4648    1.8119    2.1830 O   0  0  0  0  0  0  0  0  0  0  0  0
    5.8283    0.7149    3.2772 O   0  0  0  0  0  0  0  0  0  0  0  0
    4.2895    1.3410    0.8621 C   0  0  0  0  0  0  0  0  0  0  0  0
    3.6524    2.1292    1.9233 C   0  0  0  0  0  0  0  0  0  0  0  0
    2.6363    1.8260    2.5131 O   0  0  0  0  0  0  0  0  0  0  0  0
    4.3236    3.2703    2.1296 O   0  0  0  0  0  0  0  0  0  0  0  0
    3.5490    1.0190   -0.2815 C   0  0  0  0  0  0  0  0  0  0  0  0
    2.1890    1.5560   -0.4473 C   0  0  0  0  0  0  0  0  0  0  0  0
    2.1055    2.7633   -0.6496 O   0  0  0  0  0  0  0  0  0  0  0  0
    1.1101    0.6825   -0.4093 N   0  0  0  0  0  0  0  0  0  0  0  0
    1.1486   -0.6502    0.2252 C   0  0  0  0  0  0  0  0  0  0  0  0
    0.1346   -1.6068   -0.4178 C   0  0  0  0  0  0  0  0  0  0  0  0
   -1.2044   -1.0131   -0.4416 N   0  0  0  0  0  0  0  0  0  0  0  0
   -2.1740   -1.5325    0.4006 C   0  0  0  0  0  0  0  0  0  0  0  0
   -1.9972   -2.4656    1.1772 O   0  0  0  0  0  0  0  0  0  0  0  0
   -3.5321   -0.9649    0.3608 C   0  0  0  0  0  0  0  0  0  0  0  0
   -4.0209   -0.2656    1.4725 C   0  0  0  0  0  0  0  0  0  0  0  0
   -3.1252   -0.0334    2.6119 C   0  0  0  0  0  0  0  0  0  0  0  0
   -2.0460    0.5186    2.5494 O   0  0  0  0  0  0  0  0  0  0  0  0
   -3.6343   -0.5599    3.7339 O   0  0  0  0  0  0  0  0  0  0  0  0
   -5.3296    0.2362    1.4662 C   0  0  0  0  0  0  0  0  0  0  0  0
   -5.8179    0.9937    2.6277 C   0  0  0  0  0  0  0  0  0  0  0  0
   -5.2719    1.9508    3.1360 O   0  0  0  0  0  0  0  0  0  0  0  0
   -6.9418    0.4437    3.1095 O   0  0  0  0  0  0  0  0  0  0  0  0
   -6.1443    0.0427    0.3398 C   0  0  0  0  0  0  0  0  0  0  0  0
   -7.5112    0.5788    0.2957 C   0  0  0  0  0  0  0  0  0  0  0  0
   -8.5235   -0.0665    0.1207 O   0  0  0  0  0  0  0  0  0  0  0  0
   -7.4872    1.9147    0.4053 O   0  0  0  0  0  0  0  0  0  0  0  0
   -5.6609   -0.6733   -0.7644 C   0  0  0  0  0  0  0  0  0  0  0  0
   -6.5022   -0.8106   -1.9605 C   0  0  0  0  0  0  0  0  0  0  0  0
   -6.9785    0.1087   -2.5935 O   0  0  0  0  0  0  0  0  0  0  0  0
   -6.7199   -2.1020   -2.2412 O   0  0  0  0  0  0  0  0  0  0  0  0
   -4.3602   -1.1899   -0.7471 C   0  0  0  0  0  0  0  0  0  0  0  0
   -3.8440   -1.8995   -1.9209 C   0  0  0  0  0  0  0  0  0  0  0  0
   -3.6552   -1.4011   -3.0113 O   0  0  0  0  0  0  0  0  0  0  0  0
   -3.6300   -3.1883   -1.6333 O   0  0  0  0  0  0  0  0  0  0  0  0
   -1.2578    0.2982   -1.1070 C   0  0  0  0  0  0  0  0  0  0  0  0
   -0.2317    1.2732   -0.5030 C   0  0  0  0  0  0  0  0  0  0  0  0
    4.1399    0.2758   -1.3110 C   0  0  0  0  0  0  0  0  0  0  0  0
    3.3589   -0.0764   -2.4975 C   0  0  0  0  0  0  0  0  0  0  0  0
    2.8656   -1.1655   -2.7068 O   0  0  0  0  0  0  0  0  0  0  0  0
    3.2867    0.9695   -3.3267 O   0  0  0  0  0  0  0  0  0  0  0  0
    5.4521   -0.1926   -1.1812 C   0  0  0  0  0  0  0  0  0  0  0  0
    6.0195   -1.0283   -2.2496 C   0  0  0  0  0  0  0  0  0  0  0  0
    6.0650   -0.7541   -3.4302 O   0  0  0  0  0  0  0  0  0  0  0  0
    6.4136   -2.2096   -1.7523 O   0  0  0  0  0  0  0  0  0  0  0  0
    9.2538   -0.1853   -0.6324 H   0  0  0  0  0  0  0  0  0  0  0  0
    6.4536    0.9181    4.0065 H   0  0  0  0  0  0  0  0  0  0  0  0
    3.7813    3.7675    2.7796 H   0  0  0  0  0  0  0  0  0  0  0  0
    2.1493   -1.0848    0.1731 H   0  0  0  0  0  0  0  0  0  0  0  0
    0.9121   -0.5011    1.2859 H   0  0  0  0  0  0  0  0  0  0  0  0
    0.4125   -1.8039   -1.4597 H   0  0  0  0  0  0  0  0  0  0  0  0
    0.1351   -2.5651    0.1108 H   0  0  0  0  0  0  0  0  0  0  0  0
   -2.9509   -0.3894    4.4181 H   0  0  0  0  0  0  0  0  0  0  0  0
   -7.1637    0.9739    3.9052 H   0  0  0  0  0  0  0  0  0  0  0  0
   -8.4204    2.1943    0.2806 H   0  0  0  0  0  0  0  0  0  0  0  0
   -7.3254   -2.0925   -3.0143 H   0  0  0  0  0  0  0  0  0  0  0  0
   -3.2923   -3.5977   -2.4577 H   0  0  0  0  0  0  0  0  0  0  0  0
   -2.2548    0.7405   -1.0495 H   0  0  0  0  0  0  0  0  0  0  0  0
   -1.0257    0.1247   -2.1644 H   0  0  0  0  0  0  0  0  0  0  0  0
   -0.2038    2.1883   -1.1042 H   0  0  0  0  0  0  0  0  0  0  0  0
   -0.5269    1.5552    0.5143 H   0  0  0  0  0  0  0  0  0  0  0  0
    2.8060    0.6560   -4.1218 H   0  0  0  0  0  0  0  0  0  0  0  0
    6.7218   -2.7231   -2.5308 H   0  0  0  0  0  0  0  0  0  0  0  0
  1  2  1  0
  2  3  2  0
  2  4  1  0
  4  5  2  0
  5  6  1  0
  6  7  2  0
  6  8  1  0
  5  9  1  0
  9 10  1  0
 10 11  2  0
 10 12  1  0
  9 13  2  0
 13 14  1  0
 14 15  2  0
 14 16  1  0
 16 17  1  0
 17 18  1  0
 18 19  1  0
 19 20  1  0
 20 21  2  0
 20 22  1  0
 22 23  2  0
 23 24  1  0
 24 25  2  0
 24 26  1  0
 23 27  1  0
 27 28  1  0
 28 29  2  0
 28 30  1  0
 27 31  2  0
 31 32  1  0
 32 33  2  0
 32 34  1  0
 31 35  1  0
 35 36  1  0
 36 37  2  0
 36 38  1  0
 35 39  2  0
 39 40  1  0
 40 41  2  0
 40 42  1  0
 19 43  1  0
 43 44  1  0
 13 45  1  0
 45 46  1  0
 46 47  2  0
 46 48  1  0
 45 49  2  0
 49 50  1  0
 50 51  2  0
 50 52  1  0
 49  4  1  0
 44 16  1  0
 39 22  1  0
  1 53  1  0
  8 54  1  0
 12 55  1  0
 17 56  1  0
 17 57  1  0
 18 58  1  0
 18 59  1  0
 26 60  1  0
 30 61  1  0
 34 62  1  0
 38 63  1  0
 42 64  1  0
 43 65  1  0
 43 66  1  0
 44 67  1  0
 44 68  1  0
 48 69  1  0
 52 70  1  0
M  END
$$$$
