
     RDKit          3D

 77 79  0  0  0  0  0  0  0  0999 V2000
    4.5758   -3.7654    0.7229 O   0  0  0  0  0  0  0  0  0  0  0  0
    3.4969   -3.0640    0.1254 C   0  0  0  0  0  0  0  0  0  0  0  0
    3.9550   -1.9695   -0.8276 C   0  0  0  0  0  0  0  0  0  0  0  0
    5.0928   -1.8651   -1.2718 O   0  0  0  0  0  0  0  0  0  0  0  0
    2.9232   -1.1368   -1.1329 O   0  0  0  0  0  0  0  0  0  0  0  0
    3.2407   -0.0973   -2.0753 C   0  0  2  0  0  0  0  0  0  0  0  0
    3.9276    1.1028   -1.3783 C   0  0  2  0  0  0  0  0  0  0  0  0
    5.0995    0.7701   -0.6206 O   0  0  0  0  0  0  0  0  0  0  0  0
    2.9388    1.7831   -0.4239 C   0  0  1  0  0  0  0  0  0  0  0  0
    3.4892    3.0416   -0.0090 O   0  0  0  0  0  0  0  0  0  0  0  0
    1.5568    2.0036   -1.0645 C   0  0  2  0  0  0  0  0  0  0  0  0
    0.6154    1.1551   -0.3811 O   0  0  0  0  0  0  0  0  0  0  0  0
   -0.0581    1.8243    0.6875 C   0  0  1  0  0  0  0  0  0  0  0  0
   -1.0766    2.6613    0.1483 O   0  0  0  0  0  0  0  0  0  0  0  0
   -1.6543    3.5486    1.1223 C   0  0  2  0  0  0  0  0  0  0  0  0
   -0.9753    4.9144    1.0805 C   0  0  0  0  0  0  0  0  0  0  0  0
   -1.5121    5.9912    0.8767 O   0  0  0  0  0  0  0  0  0  0  0  0
    0.3608    4.8543    1.2718 O   0  0  0  0  0  0  0  0  0  0  0  0
   -1.6300    2.9928    2.5549 C   0  0  1  0  0  0  0  0  0  0  0  0
   -2.7020    3.5388    3.3324 O   0  0  0  0  0  0  0  0  0  0  0  0
   -1.7684    1.4697    2.5223 C   0  0  2  0  0  0  0  0  0  0  0  0
   -1.7146    0.9913    3.8777 O   0  0  0  0  0  0  0  0  0  0  0  0
   -0.6799    0.7940    1.6696 C   0  0  1  0  0  0  0  0  0  0  0  0
   -1.3329   -0.3171    1.0052 O   0  0  0  0  0  0  0  0  0  0  0  0
   -0.4376   -1.3685    0.6011 C   0  0  2  0  0  0  0  0  0  0  0  0
   -0.7251   -1.6766   -0.8820 C   0  0  1  0  0  0  0  0  0  0  0  0
    0.3393   -2.4722   -1.4293 O   0  0  0  0  0  0  0  0  0  0  0  0
   -2.0726   -2.4000   -1.0666 C   0  0  2  0  0  0  0  0  0  0  0  0
   -3.1870   -1.4735   -0.8458 N   0  0  0  0  0  0  0  0  0  0  0  0
   -4.4559   -1.7686   -1.2793 C   0  0  0  0  0  0  0  0  0  0  0  0
   -5.5054   -0.7851   -0.8388 C   0  0  0  0  0  0  0  0  0  0  0  0
   -4.7211   -2.7538   -1.9591 O   0  0  0  0  0  0  0  0  0  0  0  0
   -2.1285   -3.6323   -0.1295 C   0  0  1  0  0  0  0  0  0  0  0  0
   -1.1948   -4.6440   -0.4964 O   0  0  0  0  0  0  0  0  0  0  0  0
   -1.9217   -3.2422    1.2325 O   0  0  0  0  0  0  0  0  0  0  0  0
   -0.6323   -2.6476    1.4541 C   0  0  2  0  0  0  0  0  0  0  0  0
   -0.5224   -2.4077    2.9657 C   0  0  0  0  0  0  0  0  0  0  0  0
   -1.6512   -1.6789    3.4572 O   0  0  0  0  0  0  0  0  0  0  0  0
    1.5804    1.6067   -2.5510 C   0  0  1  0  0  0  0  0  0  0  0  0
    2.0145    0.2425   -2.7396 O   0  0  0  0  0  0  0  0  0  0  0  0
    0.2013    1.7545   -3.2037 C   0  0  0  0  0  0  0  0  0  0  0  0
    0.3114    1.4880   -4.6033 O   0  0  0  0  0  0  0  0  0  0  0  0
    5.2310   -3.9392    0.0206 H   0  0  0  0  0  0  0  0  0  0  0  0
    2.9086   -2.6150    0.9307 H   0  0  0  0  0  0  0  0  0  0  0  0
    2.8799   -3.7780   -0.4271 H   0  0  0  0  0  0  0  0  0  0  0  0
    3.9017   -0.5035   -2.8502 H   0  0  0  0  0  0  0  0  0  0  0  0
    4.2581    1.8250   -2.1345 H   0  0  0  0  0  0  0  0  0  0  0  0
    5.5690    0.0391   -1.0762 H   0  0  0  0  0  0  0  0  0  0  0  0
    2.8474    1.1884    0.4939 H   0  0  0  0  0  0  0  0  0  0  0  0
    4.4025    2.8440    0.2845 H   0  0  0  0  0  0  0  0  0  0  0  0
    1.2462    3.0535   -0.9874 H   0  0  0  0  0  0  0  0  0  0  0  0
    0.6753    2.4223    1.2416 H   0  0  0  0  0  0  0  0  0  0  0  0
   -2.6903    3.7169    0.8039 H   0  0  0  0  0  0  0  0  0  0  0  0
    0.6522    5.7884    1.1876 H   0  0  0  0  0  0  0  0  0  0  0  0
   -0.7071    3.2656    3.0815 H   0  0  0  0  0  0  0  0  0  0  0  0
   -2.7500    2.9796    4.1360 H   0  0  0  0  0  0  0  0  0  0  0  0
   -2.7707    1.2070    2.1593 H   0  0  0  0  0  0  0  0  0  0  0  0
   -1.7652    0.0062    3.8308 H   0  0  0  0  0  0  0  0  0  0  0  0
    0.1115    0.3901    2.3126 H   0  0  0  0  0  0  0  0  0  0  0  0
    0.6088   -1.0580    0.7103 H   0  0  0  0  0  0  0  0  0  0  0  0
   -0.7642   -0.7467   -1.4576 H   0  0  0  0  0  0  0  0  0  0  0  0
    0.9782   -1.8265   -1.7997 H   0  0  0  0  0  0  0  0  0  0  0  0
   -2.1364   -2.7612   -2.1015 H   0  0  0  0  0  0  0  0  0  0  0  0
   -3.0798   -0.8173   -0.0756 H   0  0  0  0  0  0  0  0  0  0  0  0
   -6.1300   -0.5205   -1.6964 H   0  0  0  0  0  0  0  0  0  0  0  0
   -6.1206   -1.2433   -0.0601 H   0  0  0  0  0  0  0  0  0  0  0  0
   -5.0576    0.1320   -0.4456 H   0  0  0  0  0  0  0  0  0  0  0  0
   -3.1204   -4.0922   -0.1733 H   0  0  0  0  0  0  0  0  0  0  0  0
   -0.4991   -4.2150   -1.0314 H   0  0  0  0  0  0  0  0  0  0  0  0
    0.1450   -3.3739    1.1846 H   0  0  0  0  0  0  0  0  0  0  0  0
   -0.5123   -3.3658    3.4965 H   0  0  0  0  0  0  0  0  0  0  0  0
    0.3910   -1.8638    3.2228 H   0  0  0  0  0  0  0  0  0  0  0  0
   -2.4212   -2.1619    3.0862 H   0  0  0  0  0  0  0  0  0  0  0  0
    2.2769    2.2477   -3.1069 H   0  0  0  0  0  0  0  0  0  0  0  0
   -0.5266    1.0490   -2.7958 H   0  0  0  0  0  0  0  0  0  0  0  0
   -0.1856    2.7707   -3.0834 H   0  0  0  0  0  0  0  0  0  0  0  0
    0.6943    0.5942   -4.6781 H   0  0  0  0  0  0  0  0  0  0  0  0
  1  2  1  0
  2  3  1  0
  3  4  2  0
  3  5  1  0
  5  6  1  0
  6  7  1  0
  7  8  1  0
  7  9  1  0
  9 10  1  0
  9 11  1  0
 11 12  1  0
 12 13  1  0
 13 14  1  0
 14 15  1  0
 15 16  1  0
 16 17  2  0
 16 18  1  0
 15 19  1  0
 19 20  1  0
 19 21  1  0
 21 22  1  0
 21 23  1  0
 23 24  1  0
 24 25  1  0
 25 26  1  0
 26 27  1  0
 26 28  1  0
 28 29  1  0
 29 30  1  0
 30 31  1  0
 30 32  2  0
 28 33  1  0
 33 34  1  0
 33 35  1  0
 35 36  1  0
 36 37  1  0
 37 38  1  0
 11 39  1  0
 39 40  1  0
 39 41  1  0
 41 42  1  0
 40  6  1  0
 23 13  1  0
 36 25  1  0
  1 43  1  0
  2 44  1  0
  2 45  1  0
  6 46  1  6
  7 47  1  6
  8 48  1  0
  9 49  1  1
 10 50  1  0
 11 51  1  6
 13 52  1  1
 15 53  1  6
 18 54  1  0
 19 55  1  1
 20 56  1  0
 21 57  1  6
 22 58  1  0
 23 59  1  1
 25 60  1  6
 26 61  1  6
 27 62  1  0
 28 63  1  6
 29 64  1  0
 31 65  1  0
 31 66  1  0
 31 67  1  0
 33 68  1  1
 34 69  1  0
 36 70  1  6
 37 71  1  0
 37 72  1  0
 38 73  1  0
 39 74  1  6
 41 75  1  0
 41 76  1  0
 42 77  1  0
M  END
$$$$
