
     RDKit          3D

 82 83  0  0  0  0  0  0  0  0999 V2000
   -6.3152    1.2864   -2.0193 O   0  0  0  0  0  0  0  0  0  0  0  0
   -6.5139    0.4123   -1.0150 C   0  0  0  0  0  0  0  0  0  0  0  0
   -7.0501   -0.6639   -1.2150 O   0  0  0  0  0  0  0  0  0  0  0  0
   -6.0001    0.9346    0.3045 C   0  0  1  0  0  0  0  0  0  0  0  0
   -6.9533    0.4670    1.4166 C   0  0  0  0  0  0  0  0  0  0  0  0
   -8.2515    1.1134    1.3587 N   0  0  0  0  0  0  0  0  0  0  0  0
   -8.5566    2.3514    1.8505 C   0  0  0  0  0  0  0  0  0  0  0  0
   -9.8928    2.5215    1.5725 C   0  0  0  0  0  0  0  0  0  0  0  0
  -10.4005    1.4196    0.9346 N   0  0  0  0  0  0  0  0  0  0  0  0
   -9.3918    0.5843    0.8265 C   0  0  0  0  0  0  0  0  0  0  0  0
   -4.5619    0.4567    0.5996 C   0  0  0  0  0  0  0  0  0  0  0  0
   -3.4820    1.0648   -0.3208 C   0  0  0  0  0  0  0  0  0  0  0  0
   -3.3252    0.4103   -1.6827 C   0  0  0  0  0  0  0  0  0  0  0  0
   -2.6951    0.8739   -2.6196 O   0  0  0  0  0  0  0  0  0  0  0  0
   -3.8989   -0.7976   -1.7913 O   0  0  0  0  0  0  0  0  0  0  0  0
   -2.0923    1.1992    0.3536 C   0  0  0  0  0  0  0  0  0  0  0  0
   -1.4160   -0.0262    1.0199 C   0  0  0  0  0  0  0  0  0  0  0  0
   -2.0264   -0.2898    2.3858 C   0  0  0  0  0  0  0  0  0  0  0  0
   -2.0396    0.5005    3.3160 O   0  0  0  0  0  0  0  0  0  0  0  0
   -2.6224   -1.4855    2.5181 O   0  0  0  0  0  0  0  0  0  0  0  0
   -1.3184   -1.2606    0.1050 C   0  0  0  0  0  0  0  0  0  0  0  0
   -0.2958   -2.3318    0.5550 C   0  0  0  0  0  0  0  0  0  0  0  0
   -0.4284   -3.6070   -0.2546 C   0  0  0  0  0  0  0  0  0  0  0  0
   -0.2160   -4.7365    0.1554 O   0  0  0  0  0  0  0  0  0  0  0  0
   -0.7678   -3.4077   -1.5411 O   0  0  0  0  0  0  0  0  0  0  0  0
    1.1793   -1.8769    0.6380 C   0  0  0  0  0  0  0  0  0  0  0  0
    1.7745   -1.1869   -0.6077 C   0  0  0  0  0  0  0  0  0  0  0  0
    2.0992   -2.1158   -1.7608 C   0  0  0  0  0  0  0  0  0  0  0  0
    2.1595   -1.7922   -2.9355 O   0  0  0  0  0  0  0  0  0  0  0  0
    2.4339   -3.3607   -1.3850 O   0  0  0  0  0  0  0  0  0  0  0  0
    3.0171   -0.3099   -0.3013 C   0  0  0  0  0  0  0  0  0  0  0  0
    4.3305   -1.0329    0.0600 C   0  0  0  0  0  0  0  0  0  0  0  0
    4.2406   -1.7142    1.4094 C   0  0  0  0  0  0  0  0  0  0  0  0
    3.7145   -1.2750    2.4171 O   0  0  0  0  0  0  0  0  0  0  0  0
    4.8588   -2.9103    1.4198 O   0  0  0  0  0  0  0  0  0  0  0  0
    5.5658   -0.0992    0.1250 C   0  0  0  0  0  0  0  0  0  0  0  0
    5.9581    0.5539   -1.2188 C   0  0  1  0  0  0  0  0  0  0  0  0
    5.3216    1.8972   -1.5118 C   0  0  0  0  0  0  0  0  0  0  0  0
    5.4708    2.5221   -2.5506 O   0  0  0  0  0  0  0  0  0  0  0  0
    4.5804    2.4078   -0.5185 O   0  0  0  0  0  0  0  0  0  0  0  0
    7.4829    0.7297   -1.3561 C   0  0  0  0  0  0  0  0  0  0  0  0
    8.0842    1.6380   -0.3994 N   0  0  0  0  0  0  0  0  0  0  0  0
    8.5965    1.3093    0.8239 C   0  0  0  0  0  0  0  0  0  0  0  0
    9.0686    2.4934    1.3405 C   0  0  0  0  0  0  0  0  0  0  0  0
    8.8772    3.5206    0.4542 N   0  0  0  0  0  0  0  0  0  0  0  0
    8.3004    2.9736   -0.5917 C   0  0  0  0  0  0  0  0  0  0  0  0
   -6.7240    0.8632   -2.8046 H   0  0  0  0  0  0  0  0  0  0  0  0
   -6.0182    2.0321    0.2727 H   0  0  0  0  0  0  0  0  0  0  0  0
   -7.1185   -0.6169    1.3881 H   0  0  0  0  0  0  0  0  0  0  0  0
   -6.5397    0.7032    2.4050 H   0  0  0  0  0  0  0  0  0  0  0  0
   -7.8320    2.9883    2.3381 H   0  0  0  0  0  0  0  0  0  0  0  0
  -10.5165    3.3766    1.7991 H   0  0  0  0  0  0  0  0  0  0  0  0
   -9.4326   -0.3982    0.3719 H   0  0  0  0  0  0  0  0  0  0  0  0
   -4.5228   -0.6385    0.5824 H   0  0  0  0  0  0  0  0  0  0  0  0
   -4.3420    0.7670    1.6279 H   0  0  0  0  0  0  0  0  0  0  0  0
   -3.8062    2.0901   -0.5515 H   0  0  0  0  0  0  0  0  0  0  0  0
   -3.6657   -1.0993   -2.6955 H   0  0  0  0  0  0  0  0  0  0  0  0
   -2.1750    1.9951    1.1071 H   0  0  0  0  0  0  0  0  0  0  0  0
   -1.3870    1.5876   -0.3947 H   0  0  0  0  0  0  0  0  0  0  0  0
   -0.3900    0.2931    1.2443 H   0  0  0  0  0  0  0  0  0  0  0  0
   -2.9308   -1.5016    3.4497 H   0  0  0  0  0  0  0  0  0  0  0  0
   -1.0703   -0.9372   -0.9116 H   0  0  0  0  0  0  0  0  0  0  0  0
   -2.3016   -1.7417    0.0336 H   0  0  0  0  0  0  0  0  0  0  0  0
   -0.5820   -2.6382    1.5702 H   0  0  0  0  0  0  0  0  0  0  0  0
   -0.8032   -4.3141   -1.9146 H   0  0  0  0  0  0  0  0  0  0  0  0
    1.7875   -2.7464    0.9146 H   0  0  0  0  0  0  0  0  0  0  0  0
    1.2509   -1.1825    1.4838 H   0  0  0  0  0  0  0  0  0  0  0  0
    1.0169   -0.4955   -0.9940 H   0  0  0  0  0  0  0  0  0  0  0  0
    2.6589   -3.8216   -2.2209 H   0  0  0  0  0  0  0  0  0  0  0  0
    2.7573    0.4059    0.4892 H   0  0  0  0  0  0  0  0  0  0  0  0
    3.1926    0.2828   -1.2063 H   0  0  0  0  0  0  0  0  0  0  0  0
    4.5290   -1.8026   -0.6953 H   0  0  0  0  0  0  0  0  0  0  0  0
    4.7275   -3.2446    2.3326 H   0  0  0  0  0  0  0  0  0  0  0  0
    5.4225    0.6531    0.9106 H   0  0  0  0  0  0  0  0  0  0  0  0
    6.4060   -0.7194    0.4664 H   0  0  0  0  0  0  0  0  0  0  0  0
    5.6324   -0.1170   -2.0248 H   0  0  0  0  0  0  0  0  0  0  0  0
    4.3006    3.2923   -0.8392 H   0  0  0  0  0  0  0  0  0  0  0  0
    7.9884   -0.2377   -1.2465 H   0  0  0  0  0  0  0  0  0  0  0  0
    7.7408    1.1035   -2.3553 H   0  0  0  0  0  0  0  0  0  0  0  0
    8.5845    0.3040    1.2202 H   0  0  0  0  0  0  0  0  0  0  0  0
    9.5418    2.6595    2.2997 H   0  0  0  0  0  0  0  0  0  0  0  0
    8.0183    3.4946   -1.4987 H   0  0  0  0  0  0  0  0  0  0  0  0
  1  2  1  0
  2  3  2  0
  2  4  1  0
  4  5  1  0
  5  6  1  0
  6  7  1  0
  7  8  2  0
  8  9  1  0
  9 10  2  0
  4 11  1  0
 11 12  1  0
 12 13  1  0
 13 14  2  0
 13 15  1  0
 12 16  1  0
 16 17  1  0
 17 18  1  0
 18 19  2  0
 18 20  1  0
 17 21  1  0
 21 22  1  0
 22 23  1  0
 23 24  2  0
 23 25  1  0
 22 26  1  0
 26 27  1  0
 27 28  1  0
 28 29  2  0
 28 30  1  0
 27 31  1  0
 31 32  1  0
 32 33  1  0
 33 34  2  0
 33 35  1  0
 32 36  1  0
 36 37  1  0
 37 38  1  0
 38 39  2  0
 38 40  1  0
 37 41  1  0
 41 42  1  0
 42 43  1  0
 43 44  2  0
 44 45  1  0
 45 46  2  0
 10  6  1  0
 46 42  1  0
  1 47  1  0
  4 48  1  6
  5 49  1  0
  5 50  1  0
  7 51  1  0
  8 52  1  0
 10 53  1  0
 11 54  1  0
 11 55  1  0
 12 56  1  0
 15 57  1  0
 16 58  1  0
 16 59  1  0
 17 60  1  0
 20 61  1  0
 21 62  1  0
 21 63  1  0
 22 64  1  0
 25 65  1  0
 26 66  1  0
 26 67  1  0
 27 68  1  0
 30 69  1  0
 31 70  1  0
 31 71  1  0
 32 72  1  0
 35 73  1  0
 36 74  1  0
 36 75  1  0
 37 76  1  6
 40 77  1  0
 41 78  1  0
 41 79  1  0
 43 80  1  0
 44 81  1  0
 46 82  1  0
M  END
$$$$
