415158
  -OEChem-07012614243D

 23 24  0     0  0  0  0  0  0999 V2000
    0.3658    1.0712    0.3131 N   0  0  0  0  0  0  0  0  0  0  0  0
    0.3797   -1.1512    0.2824 N   0  0  0  0  0  0  0  0  0  0  0  0
    4.8141    0.0562   -0.4362 N   0  0  0  0  0  0  0  0  0  0  0  0
    1.1135   -0.0689    0.4141 C   0  0  0  0  0  0  0  0  0  0  0  0
    2.5693   -0.0124    0.6438 C   0  0  0  0  0  0  0  0  0  0  0  0
   -0.9374    0.6999    0.1026 C   0  0  0  0  0  0  0  0  0  0  0  0
   -0.9026   -0.6917    0.0874 C   0  0  0  0  0  0  0  0  0  0  0  0
    3.3745    0.0315   -0.6713 C   0  0  0  0  0  0  0  0  0  0  0  0
   -2.1080    1.4392   -0.0706 C   0  0  0  0  0  0  0  0  0  0  0  0
   -2.0971   -1.4046   -0.1113 C   0  0  0  0  0  0  0  0  0  0  0  0
   -3.2876    0.7136   -0.2668 C   0  0  0  0  0  0  0  0  0  0  0  0
   -3.2843   -0.6830   -0.2873 C   0  0  0  0  0  0  0  0  0  0  0  0
    2.8198    0.8616    1.2586 H   0  0  0  0  0  0  0  0  0  0  0  0
    2.8697   -0.8945    1.2237 H   0  0  0  0  0  0  0  0  0  0  0  0
    0.7094    2.0202    0.3802 H   0  0  0  0  0  0  0  0  0  0  0  0
    3.0953    0.9175   -1.2530 H   0  0  0  0  0  0  0  0  0  0  0  0
    3.1320   -0.8413   -1.2885 H   0  0  0  0  0  0  0  0  0  0  0  0
   -2.1079    2.5232   -0.0544 H   0  0  0  0  0  0  0  0  0  0  0  0
   -2.1051   -2.4897   -0.1287 H   0  0  0  0  0  0  0  0  0  0  0  0
   -4.2243    1.2477   -0.4062 H   0  0  0  0  0  0  0  0  0  0  0  0
   -4.2172   -1.2192   -0.4420 H   0  0  0  0  0  0  0  0  0  0  0  0
    5.0834   -0.7631    0.1074 H   0  0  0  0  0  0  0  0  0  0  0  0
    5.0497    0.8624    0.1416 H   0  0  0  0  0  0  0  0  0  0  0  0
  1  4  1  0  0  0  0
  1  6  1  0  0  0  0
  1 15  1  0  0  0  0
  2  4  2  0  0  0  0
  2  7  1  0  0  0  0
  3  8  1  0  0  0  0
  3 22  1  0  0  0  0
  3 23  1  0  0  0  0
  4  5  1  0  0  0  0
  5  8  1  0  0  0  0
  5 13  1  0  0  0  0
  5 14  1  0  0  0  0
  6  7  1  0  0  0  0
  6  9  2  0  0  0  0
  7 10  2  0  0  0  0
  8 16  1  0  0  0  0
  8 17  1  0  0  0  0
  9 11  1  0  0  0  0
  9 18  1  0  0  0  0
 10 12  1  0  0  0  0
 10 19  1  0  0  0  0
 11 12  2  0  0  0  0
 11 20  1  0  0  0  0
 12 21  1  0  0  0  0
M  END
> <PUBCHEM_COMPOUND_CID>
415158

> <PUBCHEM_CONFORMER_RMSD>
0.6

> <PUBCHEM_CONFORMER_DIVERSEORDER>
1
2
3

> <PUBCHEM_MMFF94_PARTIAL_CHARGES>
19
1 0.03
10 -0.15
11 -0.15
12 -0.15
15 0.27
18 0.15
19 0.15
2 -0.57
20 0.15
21 0.15
22 0.36
23 0.36
3 -0.99
4 0.01
5 0.18
6 -0.15
7 0.23
8 0.27
9 -0.15

> <PUBCHEM_EFFECTIVE_ROTOR_COUNT>
2

> <PUBCHEM_PHARMACOPHORE_FEATURES>
6
1 1 donor
1 3 cation
1 3 donor
3 1 2 4 cation
5 1 2 4 6 7 rings
6 6 7 9 10 11 12 rings

> <PUBCHEM_HEAVY_ATOM_COUNT>
12

> <PUBCHEM_ATOM_DEF_STEREO_COUNT>
0

> <PUBCHEM_ATOM_UDEF_STEREO_COUNT>
0

> <PUBCHEM_BOND_DEF_STEREO_COUNT>
0

> <PUBCHEM_BOND_UDEF_STEREO_COUNT>
0

> <PUBCHEM_ISOTOPIC_ATOM_COUNT>
0

> <PUBCHEM_COMPONENT_COUNT>
1

> <PUBCHEM_CACTVS_TAUTO_COUNT>
2

> <PUBCHEM_CONFORMER_ID>
000655B600000001

> <PUBCHEM_MMFF94_ENERGY>
11.8616

> <PUBCHEM_FEATURE_SELFOVERLAP>
30.553

> <PUBCHEM_SHAPE_FINGERPRINT>
10465860 71 18340221751308394212
11206711 2 18337095826812789117
12032990 46 18341896354603842355
12119455 92 13912316906603334608
12932764 1 17988912379727322210
13024252 1 17530685416157954939
13380535 21 18340493244601754027
14325111 11 18409445860620399816
14911166 2 18412255138878824237
14993402 34 18040432204675566853
15219456 202 17845927545856087584
15669948 3 18410001156784246843
16945 1 18339067251192922843
18186145 218 18272083898801012224
20279233 1 17704069599433434278
20645476 183 17894910754123697843
21293036 1 18411420613689995308
21501502 16 18196086651452975779
23402539 116 18410851054177512172
23402655 69 18196351656121754325
23552423 10 18116425032718546057
23559900 14 18344144783580031944
2748010 2 18050272967315363971
369184 2 15068618271278153657
6333449 129 18342736312704423069
7364860 26 18055913444602077536

> <PUBCHEM_SHAPE_MULTIPOLES>
232.01
6.71
1.29
0.73
6.5
0
-0.01
0.16
-1.53
-1.01
0.01
0.26
0
-0.03

> <PUBCHEM_SHAPE_SELFOVERLAP>
496.926

> <PUBCHEM_SHAPE_VOLUME>
129

> <PUBCHEM_COORDINATE_TYPE>
2
5
10

$$$$
