@<TRIPOS>MOLECULE
*****
 38 60 0 0 0
SMALL
GASTEIGER

@<TRIPOS>ATOM
      1 V           2.1204    5.9555   -3.3192 V       1  UNL1        0.0000
      2 V           3.9663    4.5926   -1.2452 V       1  UNL1        0.0000
      3 V           0.9011    4.2209   -1.0739 V       1  UNL1        0.0000
      4 V           0.3723    7.2907   -1.1401 V       1  UNL1        0.0000
      5 V           3.3971    7.8560   -1.2856 V       1  UNL1        0.0000
      6 O           2.0286    5.8227   -4.9148 O.2     1  UNL1        0.0000
      7 O           3.6023    4.7487   -2.9288 O.3     1  UNL1        0.0000
      8 O           0.9946    4.3343   -2.7488 O.3     1  UNL1        0.0000
      9 O           0.5840    6.9027   -2.8974 O.3     1  UNL1        0.0000
     10 O           3.2076    7.3632   -3.0429 O.3     1  UNL1        0.0000
     11 O           2.1916    5.9000   -1.0045 O.3     1  UNL1        0.0000
     12 O           3.7520    4.8327    0.7858 O.3     1  UNL1        0.0000
     13 O           2.6234    3.3146   -0.8172 O.3     1  UNL1        0.0000
     14 O           4.8015    6.3905   -1.2096 O.3     1  UNL1        0.0000
     15 O           1.7596    8.5478   -1.1458 O.3     1  UNL1        0.0000
     16 O           5.3075    3.7125   -1.1688 O.2     1  UNL1        0.0000
     17 O          -0.0415    2.8615   -0.6854 O.3     1  UNL1        0.0000
     18 O          -0.9239    8.2258   -1.1144 O.2     1  UNL1        0.0000
     19 O           4.3497    9.1363   -1.3184 O.2     1  UNL1        0.0000
     20 V           2.4443    6.1740    1.0739 V       1  UNL1        0.0000
     21 O           2.3508    6.0606    2.7488 O.3     1  UNL1        0.0000
     22 V           1.2250    4.4395    3.3192 V       1  UNL1        0.0000
     23 O           1.3168    4.5722    4.9148 O.2     1  UNL1        0.0000
     24 O          -0.2569    5.6462    2.9288 O.3     1  UNL1        0.0000
     25 V          -0.6208    5.8023    1.2452 V       1  UNL1        0.0000
     26 O           1.1539    4.4950    1.0045 O.3     1  UNL1        0.0000
     27 O           2.7614    3.4922    2.8974 O.3     1  UNL1        0.0000
     28 V           2.9731    3.1043    1.1401 V       1  UNL1        0.0000
     29 V          -0.0517    2.5389    1.2856 V       1  UNL1        0.0000
     30 O           0.1378    3.0318    3.0429 O.3     1  UNL1        0.0000
     31 O          -1.4560    4.0044    1.2096 O.3     1  UNL1        0.0000
     32 O          -0.4066    5.5622   -0.7858 O.3     1  UNL1        0.0000
     33 O           1.5858    1.8471    1.1458 O.3     1  UNL1        0.0000
     34 O           4.2693    2.1692    1.1144 O.2     1  UNL1        0.0000
     35 O          -1.0043    1.2586    1.3184 O.2     1  UNL1        0.0000
     36 O           0.7221    7.0803    0.8172 O.3     1  UNL1        0.0000
     37 O          -1.9620    6.6824    1.1688 O.2     1  UNL1        0.0000
     38 O           3.3870    7.5334    0.6854 O.3     1  UNL1        0.0000
@<TRIPOS>BOND
     1     1     6    2
     2     2     7    1
     3     3     8    1
     4     4     9    1
     5     5    10    1
     6     1     7    1
     7     1     8    1
     8     1     9    1
     9     1    10    1
    10     1    11    1
    11     2    12    1
    12     2    13    1
    13     2    14    1
    14     4    15    1
    15     2    16    2
    16     3    17    1
    17     4    18    2
    18     5    19    2
    19    11    20    1
    20    20    21    1
    21    21    22    1
    22    22    23    2
    23    22    24    1
    24    24    25    1
    25     3    26    1
    26    22    27    1
    27    12    28    1
    28    17    29    1
    29    22    30    1
    30    25    31    1
    31     3    32    1
    32    28    33    1
    33    28    34    2
    34    29    35    2
    35     4    36    1
    36    25    37    2
    37     5    38    1
    38     2    11    1
    39     3    11    1
    40     3    13    1
    41     4    32    1
    42     4    11    1
    43     5    14    1
    44     5    15    1
    45     5    11    1
    46    12    20    1
    47    13    28    1
    48    20    38    1
    49    20    26    1
    50    20    36    1
    51    22    26    1
    52    25    26    1
    53    25    32    1
    54    25    36    1
    55    26    29    1
    56    26    28    1
    57    27    28    1
    58    29    30    1
    59    29    31    1
    60    29    33    1
